43

C          0.39508        4.22674       -0.07106
C         -0.32970        2.98576       -0.04529
C          1.74582        3.90001       -0.12000
N          0.55665        1.93059       -0.07295
C          1.82587        2.46539       -0.12607
C          3.02023        1.73050       -0.19731
C          3.13060        0.33197       -0.24848
N          2.07945       -0.55932       -0.22246
C          2.61508       -1.82537       -0.32446
C          4.36993       -0.38735       -0.35966
C          4.04711       -1.73827       -0.40855
C          1.88190       -3.02292       -0.34208
C          0.48574       -3.13490       -0.24599
N         -0.39627       -2.08252       -0.13288
C         -1.66254       -2.61845       -0.05601
C         -1.58513       -4.05292       -0.11855
C         -0.23930       -4.37625       -0.23950
C         -2.85541       -1.88681        0.05445
C         -2.96820       -0.48726        0.09045
C         -4.20923        0.23326        0.15218
N         -1.91683        0.40473        0.04091
C         -2.45843        1.67378        0.04925
C         -3.89023        1.58686        0.12203
C         -1.72921        2.87310        0.00371
H         -0.06642        5.21797       -0.04836
H          2.60860        4.57151       -0.14960
H          3.95398        2.30312       -0.22878
H          5.35876        0.07873       -0.39372
H          4.71902       -2.59758       -0.48815
H          2.45257       -3.95518       -0.41908
H         -2.44661       -4.72513       -0.07156
H          0.22095       -5.36612       -0.30741
H         -3.78751       -2.46076        0.10512
H         -5.19721       -0.23280        0.20421
H         -4.56478        2.44696        0.15480
H         -2.30345        3.80589        0.02880
Fe         0.07571       -0.07444       -0.19187
O         -0.02226       -0.02636       -1.84418
S          0.33017       -0.20446        2.42352
C         -0.91555        0.96846        3.10056
H         -0.86095        0.98035        4.20682
H         -1.94063        0.68420        2.80714
H         -0.74317        1.99540        2.73493
